@<TRIPOS>MOLECULE
ZINC03861261
   47    49     0     0     0
SMALL
USER_CHARGES

@<TRIPOS>ATOM
      1 C1         -3.2839   -0.5510    4.0839 C.ar      1 <0>        -0.1073
      2 C2         -4.0862   -0.1066    3.0496 C.ar      1 <0>        -0.1201
      3 C3         -4.1656    1.2444    2.7678 C.ar      1 <0>        -0.1002
      4 C4         -3.4423    2.1509    3.5200 C.ar      1 <0>        -0.0945
      5 C5         -2.6356    1.7061    4.5507 C.ar      1 <0>        -0.1064
      6 C6         -2.5603    0.3555    4.8358 C.ar      1 <0>        -0.1150
      7 C7         -3.5285    3.6237    3.2126 C.3       1 <0>         0.1254
      8 C8         -2.5858    4.3807    4.1122 C.ar      1 <0>        -0.0855
      9 C9         -2.7937    4.3915    5.4788 C.ar      1 <0>        -0.0998
     10 C10        -1.9262    5.0819    6.3045 C.ar      1 <0>        -0.1187
     11 C11        -0.8565    5.7697    5.7627 C.ar      1 <0>        -0.1107
     12 C12        -0.6519    5.7636    4.3955 C.ar      1 <0>        -0.1110
     13 C13        -1.5164    5.0689    3.5703 C.ar      1 <0>        -0.1196
     14 C14        -4.9381    4.1037    3.4444 C.ar      1 <0>        -0.0638
     15 C15        -5.7502    3.4501    4.3521 C.ar      1 <0>        -0.0964
     16 C16        -7.0417    3.8933    4.5683 C.ar      1 <0>        -0.1167
     17 C17        -7.5242    4.9839    3.8693 C.ar      1 <0>        -0.1110
     18 C18        -6.7139    5.6340    2.9574 C.ar      1 <0>        -0.1160
     19 C19        -5.4207    5.1940    2.7450 C.ar      1 <0>        -0.1024
     20 S1         -3.0701    3.9077    1.4805 S.3       1 <0>        -0.2431
     21 C20        -1.4601    3.0891    1.3128 C.3       1 <0>        -0.1178
     22 C21        -0.9924    3.1769   -0.1413 C.3       1 <0>         0.0055
     23 H1         -0.8996    4.2237   -0.4306 H         1 <0>         0.1462
     24 C22         0.3452    2.4968   -0.2807 C.2       1 <0>         0.4620
     25 O1          0.4088    1.3731   -0.7203 O.co2     1 <0>        -0.6077
     26 H2         -3.2222   -1.6065    4.3042 H         1 <0>         0.1256
     27 H3         -4.6513   -0.8149    2.4619 H         1 <0>         0.1260
     28 H4         -4.7924    1.5915    1.9597 H         1 <0>         0.1261
     29 H5         -2.0670    2.4140    5.1355 H         1 <0>         0.1340
     30 H6         -1.9332    0.0083    5.6436 H         1 <0>         0.1266
     31 H7         -3.6317    3.8575    5.9017 H         1 <0>         0.1228
     32 H8         -2.0863    5.0869    7.3725 H         1 <0>         0.1258
     33 H9         -0.1809    6.3122    6.4074 H         1 <0>         0.1255
     34 H10         0.1836    6.3013    3.9722 H         1 <0>         0.1284
     35 H11        -1.3565    5.0642    2.5023 H         1 <0>         0.1388
     36 H12        -5.3746    2.5955    4.8952 H         1 <0>         0.1241
     37 H13        -7.6749    3.3851    5.2805 H         1 <0>         0.1257
     38 H14        -8.5344    5.3279    4.0355 H         1 <0>         0.1248
     39 H15        -7.0910    6.4859    2.4110 H         1 <0>         0.1256
     40 H16        -4.7877    5.7019    2.0325 H         1 <0>         0.1289
     41 H17        -1.5528    2.0423    1.6020 H         1 <0>         0.1057
     42 H18        -0.7331    3.5815    1.9586 H         1 <0>         0.1341
     43 H19        -1.7189    2.6133   -1.9833 H         1 <0>         0.4354
     44 H20        -2.0762    1.5408   -0.7635 H         1 <0>         0.4354
     45 O2          1.4665    3.1414    0.0782 O.co2     1 <0>        -0.6932
     46 N1         -1.9928    2.5266   -1.0060 N.4       1 <0>        -0.6261
     47 H21        -2.9028    2.9828   -0.8715 H         1 <0>         0.4246
@<TRIPOS>BOND
     1    1    6 ar
     2    1    2 ar
     3    1   26 1
     4    2    3 ar
     5    2   27 1
     6    3    4 ar
     7    3   28 1
     8    4    5 ar
     9    4    7 1
    10    5    6 ar
    11    5   29 1
    12    6   30 1
    13    7    8 1
    14    7   14 1
    15    7   20 1
    16    8   13 ar
    17    8    9 ar
    18    9   10 ar
    19    9   31 1
    20   10   11 ar
    21   10   32 1
    22   11   12 ar
    23   11   33 1
    24   12   13 ar
    25   12   34 1
    26   13   35 1
    27   14   19 ar
    28   14   15 ar
    29   15   16 ar
    30   15   36 1
    31   16   17 ar
    32   16   37 1
    33   17   18 ar
    34   17   38 1
    35   18   19 ar
    36   18   39 1
    37   19   40 1
    38   20   21 1
    39   21   22 1
    40   21   41 1
    41   21   42 1
    42   22   23 1
    43   22   24 1
    44   22   46 1
    45   24   25 2
    46   24   45 1
    47   43   46 1
    48   44   46 1
    49   46   47 1
